Version 4
SHEET 1 2476 868
WIRE -160 -256 -304 -256
WIRE -48 -256 -80 -256
WIRE 32 -256 -48 -256
WIRE 112 -256 32 -256
WIRE 208 -256 112 -256
WIRE 336 -256 208 -256
WIRE 464 -256 336 -256
WIRE 544 -256 528 -256
WIRE -304 -240 -304 -256
WIRE 32 -240 32 -256
WIRE 208 -240 208 -256
WIRE 336 -240 336 -256
WIRE -48 -224 -48 -256
WIRE 112 -176 112 -256
WIRE 128 -176 112 -176
WIRE 496 -176 416 -176
WIRE -304 -144 -304 -160
WIRE 32 -144 32 -176
WIRE -48 -128 -48 -160
WIRE -48 -32 -48 -48
WIRE -368 16 -496 16
WIRE -288 16 -368 16
WIRE -208 16 -288 16
WIRE -112 16 -208 16
WIRE -32 16 -112 16
WIRE 128 16 48 16
WIRE 480 16 416 16
WIRE 624 16 560 16
WIRE 720 16 624 16
WIRE 816 16 720 16
WIRE 912 16 816 16
WIRE 992 16 912 16
WIRE 1024 16 992 16
WIRE 1168 16 1104 16
WIRE 1328 16 1328 0
WIRE 1328 16 1168 16
WIRE -496 32 -496 16
WIRE -368 32 -368 16
WIRE -288 32 -288 16
WIRE -208 32 -208 16
WIRE -112 32 -112 16
WIRE 624 32 624 16
WIRE 720 32 720 16
WIRE 816 32 816 16
WIRE 912 32 912 16
WIRE 1168 32 1168 16
WIRE 1328 32 1328 16
WIRE -208 112 -208 96
WIRE -112 112 -208 112
WIRE 128 112 -112 112
WIRE 624 112 416 112
WIRE 720 112 720 96
WIRE 720 112 624 112
WIRE -496 128 -496 112
WIRE -368 128 -368 96
WIRE -288 128 -288 96
WIRE -112 128 -112 112
WIRE 624 128 624 112
WIRE 816 128 816 96
WIRE 912 128 912 96
WIRE 1168 128 1168 96
WIRE 1328 128 1328 112
WIRE 992 192 992 16
WIRE 1040 192 992 192
WIRE 1168 192 1120 192
WIRE 1328 192 1168 192
WIRE 128 208 -16 208
WIRE 576 208 416 208
WIRE 1328 208 1328 192
WIRE -112 224 -112 208
WIRE 576 224 576 208
WIRE 624 224 624 208
WIRE 1168 224 1168 192
WIRE 128 304 48 304
WIRE 464 304 416 304
WIRE 576 304 576 288
WIRE 656 304 576 304
WIRE 784 304 736 304
WIRE 48 320 48 304
WIRE 464 320 464 304
WIRE 1168 320 1168 288
WIRE 1328 320 1328 288
WIRE 992 352 992 192
WIRE 1040 352 992 352
WIRE 1168 352 1120 352
WIRE 1328 352 1168 352
WIRE 1168 368 1168 352
WIRE -64 384 -64 368
WIRE 128 400 112 400
WIRE 544 400 416 400
WIRE 560 400 544 400
WIRE 784 400 784 304
WIRE 784 400 624 400
WIRE 48 416 48 384
WIRE 784 448 784 400
WIRE 1168 464 1168 432
WIRE 1328 464 1328 432
WIRE -64 496 -64 464
WIRE -64 496 -96 496
WIRE 128 496 -64 496
WIRE 32 592 16 592
WIRE 128 592 112 592
WIRE 432 592 416 592
WIRE 336 656 336 640
WIRE -16 688 -16 208
WIRE 544 688 544 400
WIRE 544 688 -16 688
FLAG -304 -144 0
FLAG 48 416 0
FLAG 16 592 0
FLAG 336 656 0
FLAG 624 224 0
FLAG 1328 128 0
FLAG 1328 0 OUT2
FLAG -304 -256 IN
FLAG 784 448 0
FLAG 544 -256 0
FLAG 32 -144 0
FLAG 816 128 0
FLAG 912 128 0
FLAG -112 224 0
FLAG -496 128 0
FLAG -496 16 OUT1
FLAG -288 128 0
FLAG -368 128 0
FLAG 432 592 0
FLAG 1168 128 0
FLAG 464 384 0
FLAG 496 -176 PG_1
FLAG -64 368 OUT1
FLAG -96 496 PG_1
FLAG 1168 320 0
FLAG 1168 464 0
FLAG 1328 464 0
FLAG 1328 320 0
FLAG -48 -32 0
SYMBOL voltage -304 -256 R0
WINDOW 123 0 0 Left 2
WINDOW 39 0 0 Left 2
WINDOW 3 23 88 Left 2
SYMATTR Value 24
SYMATTR InstName V1
SYMBOL cap 64 384 R180
WINDOW 0 24 56 Left 2
WINDOW 3 24 8 Left 2
SYMATTR InstName C11
SYMATTR Value 1n
SYMBOL res 128 576 R90
WINDOW 0 0 56 VBottom 2
WINDOW 3 32 56 VTop 2
SYMATTR InstName R5
SYMATTR Value 15k
SYMBOL ind 464 32 R270
WINDOW 0 32 56 VTop 2
WINDOW 3 5 56 VBottom 2
SYMATTR InstName L2
SYMATTR Value 10µ
SYMATTR Value2 Rser=10m
SYMATTR SpiceLine Ipk=9.5 Rser=0.0162 Cpar=0
SYMBOL res 608 112 R0
SYMATTR InstName R4
SYMATTR Value 56k
SYMBOL cap 560 384 M90
WINDOW 0 0 32 VBottom 2
WINDOW 3 32 32 VTop 2
SYMATTR InstName C13
SYMATTR Value 1µ
SYMBOL res 1312 16 R0
SYMATTR InstName Rload2
SYMATTR Value 20.4
SYMBOL cap 464 -240 R270
WINDOW 0 32 32 VTop 2
WINDOW 3 0 32 VBottom 2
SYMATTR InstName C2
SYMATTR Value 4.7µ
SYMATTR SpiceLine V=50 Rser=50m
SYMBOL cap 16 -240 R0
SYMATTR InstName C1
SYMATTR Value 4.7µ
SYMATTR SpiceLine V=50 Rser=50m
SYMBOL res 608 16 R0
SYMATTR InstName R3
SYMATTR Value 1Meg
SYMBOL cap 704 32 R0
SYMATTR InstName C7
SYMATTR Value 220p
SYMBOL ind 64 32 M270
WINDOW 0 32 56 VTop 2
WINDOW 3 5 56 VBottom 2
SYMATTR InstName L1
SYMATTR Value 1µ
SYMATTR Value2 Rser=10m
SYMATTR SpiceLine Ipk=4.9 Rser=0.014 Cpar=0
SYMBOL res -128 112 R0
SYMATTR InstName R2
SYMATTR Value 178K
SYMBOL res -512 16 R0
SYMATTR InstName Rload1
SYMATTR Value 5
SYMBOL res -128 16 R0
SYMATTR InstName R1
SYMATTR Value 1Meg
SYMBOL cap -224 32 R0
SYMATTR InstName C6
SYMATTR Value 4.7p
SYMBOL cap 800 32 R0
SYMATTR InstName C8
SYMATTR Value 47µ
SYMATTR SpiceLine V=10 Irms=11.7 Rser=10m
SYMBOL cap 896 32 R0
SYMATTR InstName C9
SYMATTR Value 47µ
SYMATTR SpiceLine V=10 Irms=11.7 Rser=10m
SYMBOL cap -304 32 R0
SYMATTR InstName C5
SYMATTR Value 47µ
SYMATTR SpiceLine V=10 Irms=11.7 Rser=0.003
SYMBOL cap -384 32 R0
SYMATTR InstName C4
SYMATTR Value 47µ
SYMATTR SpiceLine V=10 Irms=11.7 Rser=0.003 Lser=0
SYMBOL PowerProducts\\LT8650S 272 192 R0
SYMATTR InstName U1
SYMBOL cap 592 224 M0
SYMATTR InstName C3
SYMATTR Value 220p
SYMBOL res 752 288 R90
WINDOW 0 0 56 VBottom 2
WINDOW 3 32 56 VTop 2
SYMATTR InstName R6
SYMATTR Value 14k
SYMBOL ind 1008 32 R270
WINDOW 0 32 56 VTop 2
WINDOW 3 5 56 VBottom 2
SYMATTR InstName L3
SYMATTR Value 150µ
SYMATTR Value2 Rser=10m
SYMATTR SpiceLine Ipk=6.5 Rser=0.355 Cpar=0
SYMBOL cap 1152 32 R0
SYMATTR InstName C10
SYMATTR Value 400µ
SYMATTR SpiceLine V=10 Irms=11.7 Rser=20m
SYMBOL cap 480 384 R180
WINDOW 0 24 56 Left 2
WINDOW 3 24 8 Left 2
SYMATTR InstName C12
SYMATTR Value 1n
SYMBOL res -48 480 R180
WINDOW 0 36 76 Left 2
WINDOW 3 36 40 Left 2
SYMATTR InstName R7
SYMATTR Value 14k
SYMBOL ind -176 -240 R270
WINDOW 0 32 56 VTop 2
WINDOW 3 5 56 VBottom 2
SYMATTR InstName L4
SYMATTR Value 1µ
SYMATTR Value2 Rser=10m
SYMATTR SpiceLine Ipk=9.5 Rser=0.05 Cpar=0
SYMBOL res 1312 192 R0
SYMATTR InstName Rload3
SYMATTR Value 20.4
SYMBOL res 1312 336 R0
SYMATTR InstName Rload4
SYMATTR Value 20.4
SYMBOL cap 1152 224 R0
SYMATTR InstName C14
SYMATTR Value 400µ
SYMATTR SpiceLine V=10 Irms=11.7 Rser=20m
SYMBOL cap 1152 368 R0
SYMATTR InstName C15
SYMATTR Value 400µ
SYMATTR SpiceLine V=10 Irms=11.7 Rser=20m
SYMBOL ind 1024 208 R270
WINDOW 0 32 56 VTop 2
WINDOW 3 5 56 VBottom 2
SYMATTR InstName L5
SYMATTR Value 150µ
SYMATTR Value2 Rser=10m
SYMATTR SpiceLine Ipk=6.5 Rser=0.355 Cpar=0
SYMBOL ind 1024 368 R270
WINDOW 0 32 56 VTop 2
WINDOW 3 5 56 VBottom 2
SYMATTR InstName L6
SYMATTR Value 150µ
SYMATTR Value2 Rser=10m
SYMATTR SpiceLine Ipk=6.5 Rser=0.355 Cpar=0
SYMBOL cap -64 -224 R0
SYMATTR InstName C16
SYMATTR Value 47µ
SYMATTR SpiceLine V=50 Rser=50m
SYMBOL res -64 -144 R0
SYMATTR InstName R8
SYMATTR Value 0.5
TEXT 72 544 Bottom 2 ;fsw=2MHz
TEXT 240 -360 Center 2 ;LT8650S - Dual Channel 42V, 4A Synchronous Step-Down Silent Switcher 2 with 6.2µA Quiescent Current\n 2MHz Step-Down Converter\nInput: 5.4V to 42V     Output: 5V @ 4A & 3.3V @ 4A
TEXT -312 680 Left 2 ;Note:\n  If the simulation model is not found please update with the "Sync Release" command from the "Tools" menu.\n  It remains the customer's responsibility to verify proper and reliable operation in the actual application.\n  Component substitution and printed circuit board layout may significantly affect circuit performance or reliability.\n  Contact your local sales representative for assistance. This circuit is distributed to customers only for use with LTC parts.\n  Copyright © 2017 Linear Technology Inc. All rights reserved.
TEXT 584 656 Left 2 !.tran 0 6.5m 0 steady startup
TEXT -496 -8 Bottom 2 ;5V/1A
TEXT 920 -8 Bottom 2 ;15V/2.2A
